/*--------------------------------*- C++ -*----------------------------------*\
  =========                 |
  \\      /  F ield         | OpenFOAM: The Open Source CFD Toolbox
   \\    /   O peration     | Website:  https://openfoam.org
    \\  /    A nd           | Version:  9
     \\/     M anipulation  |
\*---------------------------------------------------------------------------*/
FoamFile
{
    format      ascii;
    class       dictionary;
    location    "system";
    object      topoSetDict;
}
// * * * * * * * * * * * * * * * * * * * * * * * * * * * * * * * * * * * * * //

actions
(
    {
        name    c1;
        type    cellSet;
        action  new;
        source  boxToCell;
        sourceInfo
        {
            box (-10 -5 -3) (6 0 1.5);
        }
    }
    {
        name    c2;
        type    cellSet;
        action  new;
        source  boxToCell;
        sourceInfo
        {
            box (-7 -3 -2) (5 0 1.2);
        }
    }
    {
        name    c3;
        type    cellSet;
        action  new;
        source  boxToCell;
        sourceInfo
        {
            box (-5 -1.2 -1.2) (4 0 1);
        }
    }
    {
        name    c4;
        type    cellSet;
        action  new;
        source  boxToCell;
        sourceInfo
        {
            box (-4 -0.7 -0.8) (3 0 0.6);
        }
    }
    {
        name    c5;
        type    cellSet;
        action  new;
        source  boxToCell;
        sourceInfo
        {
            box (-3 -0.3 -0.55) (2.5 0 0.45);
        }
    }
    {
        name    c6;
        type    cellSet;
        action  new;
        source  boxToCell;
        sourceInfo
        {
            box (-2.5 -0.25 -0.4) (2.25 0 0.3);
        }
    }
);

// ************************************************************************* //
